Version 4
SHEET 1 960 720
TEXT 0 16 Left 2 ; EESchema Netlist Version 1.1  (Spice format) creation date: Mi 12 Apr 2017 19:43:57 CEST
TEXT 0 48 Left 2 ; To exclude a component from the Spice Netlist add [Spice_Netlist_Enabled] user FIELD set to: N
TEXT 0 80 Left 2 ; To reorder the component spice node sequence add [Spice_Node_Sequence] user FIELD and define sequence: 2,1,0
TEXT 0 112 Left 2 ; Sheet Name: /
SYMBOL diode -16 -128 R0
SYMATTR InstName D1
SYMATTR Value BPW34
FLAG 0 -128 17
FLAG 0 -64 14
SYMBOL urc 192 -144 R0
SYMATTR InstName U1
SYMATTR Value 16 15 11 9 7 6 4 5 1 8 2 TL074
FLAG 208 -128 13
FLAG 208 -64 14
FLAG 176 -96 15
SYMBOL res 368 -144 R0
SYMATTR InstName R1
SYMATTR Value 10k
FLAG 384 -128 16
FLAG 384 -48 17
SYMBOL res 560 -144 R0
SYMATTR InstName R2
SYMATTR Value 22k
FLAG 576 -128 17
FLAG 576 -48 5
SYMBOL res 752 -144 R0
SYMATTR InstName R5
SYMATTR Value 100k
FLAG 768 -128 13
FLAG 768 -48 14
SYMBOL res 944 -144 R0
SYMATTR InstName R3
SYMATTR Value 100k
FLAG 960 -128 16
FLAG 960 -48 15
SYMBOL res 1136 -144 R0
SYMATTR InstName R4
SYMATTR Value 100k
FLAG 1152 -128 15
FLAG 1152 -48 5
SYMBOL cap 1328 -128 R0
SYMATTR InstName C1
SYMATTR Value 100n
FLAG 1344 -128 15
FLAG 1344 -64 5
SYMBOL cap 1520 -128 R0
SYMATTR InstName C2
SYMATTR Value 100n
FLAG 1536 -128 5
FLAG 1536 -64 16
SYMBOL cap 1712 -128 R0
SYMATTR InstName C3
SYMATTR Value 1u
FLAG 1728 -128 12
FLAG 1728 -64 3
SYMBOL res -16 -336 R0
SYMATTR InstName R6
SYMATTR Value 10k
FLAG 0 -320 3
FLAG 0 -240 13
SYMBOL res 176 -336 R0
SYMATTR InstName R8
SYMATTR Value 2.2k
FLAG 192 -320 11
FLAG 192 -240 12
SYMBOL res 368 -336 R0
SYMATTR InstName R9
SYMATTR Value 100k
FLAG 384 -320 9
FLAG 384 -240 11
SYMBOL res 560 -336 R0
SYMATTR InstName R7
SYMATTR Value R
FLAG 576 -320 12
FLAG 576 -240 5
SYMBOL cap 752 -320 R0
SYMATTR InstName C6
SYMATTR Value 1u
FLAG 768 -320 4
FLAG 768 -256 9
SYMBOL res 944 -336 R0
SYMATTR InstName R14
SYMATTR Value 22k
FLAG 960 -320 7
FLAG 960 -240 6
SYMBOL res 1136 -336 R0
SYMATTR InstName R12
SYMATTR Value 12k
FLAG 1152 -320 4
FLAG 1152 -240 5
SYMBOL res 1328 -336 R0
SYMATTR InstName R13
SYMATTR Value 10k
FLAG 1344 -320 6
FLAG 1344 -240 5
SYMBOL res 1520 -336 R0
SYMATTR InstName R11
SYMATTR Value 82k
FLAG 1536 -320 16
FLAG 1536 -240 4
SYMBOL res 1712 -336 R0
SYMATTR InstName R15
SYMATTR Value 1k
FLAG 1728 -320 1
FLAG 1728 -240 7
SYMBOL res -16 -528 R0
SYMATTR InstName R18
SYMATTR Value 100k
FLAG 0 -512 2
FLAG 0 -432 1
SYMBOL res 176 -528 R0
SYMATTR InstName R16
SYMATTR Value 10k
FLAG 192 -512 16
FLAG 192 -432 8
SYMBOL res 368 -528 R0
SYMATTR InstName R17
SYMATTR Value 10k
FLAG 384 -512 8
FLAG 384 -432 5
SYMBOL njf 560 -528 R0
SYMATTR InstName J1
SYMATTR Value 
FLAG 608 -528 10
FLAG 560 -464 Sgn
FLAG 608 -432 
SYMBOL cap 752 -512 R0
SYMATTR InstName C4
SYMATTR Value 1u
FLAG 768 -512 5
FLAG 768 -448 16
SYMBOL njf 944 -528 R0
SYMATTR InstName J3
SYMATTR Value 
FLAG 992 -528 5
FLAG 944 -464 D_GND
FLAG 992 -432 
SYMBOL njf 1136 -528 R0
SYMATTR InstName J4
SYMATTR Value 
FLAG 1184 -528 16
FLAG 1136 -464 12V
FLAG 1184 -432 
SYMBOL njf 1328 -528 R0
SYMATTR InstName J5
SYMATTR Value 
FLAG 1376 -528 5
FLAG 1328 -464 GND
FLAG 1376 -432 
SYMBOL cap 1520 -512 R0
SYMATTR InstName C7
SYMATTR Value 22p
FLAG 1536 -512 13
FLAG 1536 -448 14
SYMBOL cap 1712 -512 R0
SYMATTR InstName C5
SYMATTR Value 22p
FLAG 1728 -512 9
FLAG 1728 -448 11
SYMBOL cap -16 -704 R0
SYMATTR InstName C8
SYMATTR Value 100n
FLAG 0 -704 8
FLAG 0 -640 5
SYMBOL res 176 -720 R0
SYMATTR InstName R10
SYMATTR Value 27k
FLAG 192 -704 10
FLAG 192 -624 2
SYMBOL res 368 -720 R0
SYMATTR InstName R19
SYMATTR Value 10k
FLAG 384 -704 5
FLAG 384 -624 10
TEXT 0 144 Left 2 !.end
